Version 4
SHEET 1 880 680
WIRE -624 -336 -880 -336
WIRE -624 -304 -624 -336
WIRE 32 -304 -16 -304
WIRE -16 -272 -16 -304
WIRE 32 -272 32 -304
WIRE -880 -144 -880 -336
WIRE -624 -208 -624 -224
WIRE -16 -160 -16 -192
WIRE -48 -144 -112 -144
WIRE 80 -128 16 -128
WIRE -624 -112 -624 -128
WIRE -480 -112 -624 -112
WIRE -336 -112 -480 -112
WIRE -176 -112 -256 -112
WIRE -48 -112 -176 -112
WIRE -480 -96 -480 -112
WIRE -176 -96 -176 -112
WIRE -16 -64 -16 -96
WIRE -624 -48 -624 -112
WIRE -480 -16 -480 -32
WIRE -272 -16 -320 -16
WIRE -176 -16 -192 -16
WIRE -320 0 -320 -16
WIRE -880 80 -880 -64
WIRE -816 80 -880 80
WIRE -624 80 -624 32
WIRE -624 80 -816 80
WIRE -480 80 -480 48
WIRE -480 80 -624 80
WIRE -336 80 -480 80
WIRE -112 80 -112 -144
WIRE -112 80 -256 80
WIRE -48 80 -112 80
WIRE 80 80 80 -128
WIRE 80 80 32 80
WIRE -816 144 -816 80
WIRE 0 0 0 0
FLAG -816 144 0
FLAG -320 0 0
FLAG 32 -272 0
FLAG -16 -64 0
SYMBOL voltage -880 -160 R0
WINDOW 123 0 0 Left 2
WINDOW 39 0 0 Left 2
SYMATTR InstName V1
SYMATTR Value SINE(0 19.79898987322333 500)
SYMBOL ind -640 -320 R0
SYMATTR InstName L1
SYMATTR Value 3.7m
SYMBOL res -640 -224 R0
SYMATTR InstName R1
SYMATTR Value 20
SYMBOL zener -496 -16 R0
SYMATTR InstName D1
SYMATTR Value BZX84C15L
SYMATTR Description Diode
SYMATTR Type diode
SYMBOL zener -464 -32 R180
WINDOW 0 24 64 Left 2
WINDOW 3 24 0 Left 2
SYMATTR InstName D2
SYMATTR Value BZX84C15L
SYMATTR Description Diode
SYMATTR Type diode
SYMBOL res -240 -128 R90
WINDOW 0 0 56 VBottom 2
WINDOW 3 32 56 VTop 2
SYMATTR InstName R4
SYMBOL res -240 64 R90
WINDOW 0 0 56 VBottom 2
WINDOW 3 32 56 VTop 2
SYMATTR InstName R5
SYMBOL res -192 -112 R0
SYMATTR InstName R6
SYMBOL Opamps\\UniversalOpamp2 -16 -128 R0
SYMATTR InstName U1
SYMBOL voltage -176 -16 R90
WINDOW 0 -32 56 VBottom 2
WINDOW 3 32 56 VTop 2
SYMATTR InstName V2
SYMBOL voltage -16 -176 R180
WINDOW 0 24 96 Left 2
WINDOW 3 24 16 Left 2
SYMATTR InstName V3
SYMBOL res 48 64 R90
WINDOW 0 0 56 VBottom 2
WINDOW 3 32 56 VTop 2
SYMATTR InstName R7
SYMBOL res -640 -64 R0
SYMATTR InstName R3
SYMATTR Value 270m
