Version 4
SHEET 1 980 680
WIRE 928 -48 880 -48
WIRE 880 -16 880 -48
WIRE 928 -16 928 -48
WIRE 160 0 16 0
WIRE 272 0 160 0
WIRE 160 16 160 0
WIRE 272 16 272 0
WIRE 880 96 880 64
WIRE 16 112 16 0
WIRE 848 112 784 112
WIRE 976 128 912 128
WIRE 272 144 272 96
WIRE 416 144 272 144
WIRE 560 144 416 144
WIRE 720 144 640 144
WIRE 848 144 720 144
WIRE 416 160 416 144
WIRE 720 160 720 144
WIRE 880 192 880 160
WIRE 160 208 160 96
WIRE 272 208 272 144
WIRE 416 240 416 224
WIRE 624 240 576 240
WIRE 720 240 704 240
WIRE 576 256 576 240
WIRE 16 336 16 192
WIRE 80 336 16 336
WIRE 160 336 160 288
WIRE 160 336 80 336
WIRE 272 336 272 288
WIRE 272 336 160 336
WIRE 416 336 416 304
WIRE 416 336 272 336
WIRE 560 336 416 336
WIRE 784 336 784 112
WIRE 784 336 640 336
WIRE 848 336 784 336
WIRE 976 336 976 128
WIRE 976 336 928 336
WIRE 80 400 80 336
FLAG 80 400 0
FLAG 576 256 0
FLAG 928 -16 0
FLAG 880 192 0
SYMBOL voltage 16 96 R0
WINDOW 123 0 0 Left 2
WINDOW 39 0 0 Left 2
SYMATTR InstName V1
SYMATTR Value SINE(0 19.79898987322333 500)
SYMBOL ind 144 0 R0
SYMATTR InstName L1
SYMATTR Value 3.7m
SYMBOL res 144 192 R0
SYMATTR InstName R1
SYMATTR Value 20
SYMBOL res 256 0 R0
SYMATTR InstName R2
SYMATTR Value 150k
SYMBOL res 256 192 R0
SYMATTR InstName R3
SYMATTR Value 12k
SYMBOL zener 400 240 R0
SYMATTR InstName D1
SYMATTR Value BZX84C15L
SYMATTR Description Diode
SYMATTR Type diode
SYMBOL zener 432 224 R180
WINDOW 0 24 64 Left 2
WINDOW 3 24 0 Left 2
SYMATTR InstName D2
SYMATTR Value BZX84C15L
SYMATTR Description Diode
SYMATTR Type diode
SYMBOL res 656 128 R90
WINDOW 0 0 56 VBottom 2
WINDOW 3 32 56 VTop 2
SYMATTR InstName R4
SYMATTR Value 90k
SYMBOL res 656 320 R90
WINDOW 0 0 56 VBottom 2
WINDOW 3 32 56 VTop 2
SYMATTR InstName R5
SYMATTR Value 90k
SYMBOL res 704 144 R0
SYMATTR InstName R6
SYMATTR Value 82k
SYMBOL Opamps\\UniversalOpamp2 880 128 R0
SYMATTR InstName U1
SYMBOL voltage 720 240 R90
WINDOW 0 -32 56 VBottom 2
WINDOW 3 32 56 VTop 2
SYMATTR InstName V2
SYMATTR Value 1.65
SYMBOL voltage 880 80 R180
WINDOW 0 24 96 Left 2
WINDOW 3 24 16 Left 2
WINDOW 123 0 0 Left 2
WINDOW 39 0 0 Left 2
SYMATTR InstName V3
SYMATTR Value 3.3
SYMBOL res 944 320 R90
WINDOW 0 0 56 VBottom 2
WINDOW 3 32 56 VTop 2
SYMATTR InstName R7
SYMATTR Value 82k
TEXT -18 424 Left 2 !.tran 0 1 .1 10u
