Version 4
SHEET 1 880 680
WIRE -144 48 -192 48
WIRE -32 48 -80 48
WIRE 128 48 48 48
WIRE 160 48 128 48
WIRE 448 48 416 48
WIRE 624 48 448 48
WIRE -192 160 -192 48
WIRE 128 160 128 48
WIRE 448 160 448 48
WIRE 624 160 624 48
WIRE -192 336 -192 240
WIRE 128 336 128 224
WIRE 128 336 -192 336
WIRE 288 336 288 144
WIRE 288 336 128 336
WIRE 448 336 448 224
WIRE 448 336 288 336
WIRE 624 336 624 240
WIRE 624 336 448 336
WIRE -192 352 -192 336
FLAG -192 352 0
SYMBOL res 64 32 R90
WINDOW 0 0 56 VBottom 2
WINDOW 3 32 56 VTop 2
SYMATTR InstName R1
SYMATTR Value 50
SYMBOL res 608 144 R0
SYMATTR InstName R2
SYMATTR Value 100
SYMBOL cap 112 160 R0
SYMATTR InstName C1
SYMATTR Value 100µ
SYMBOL cap 432 160 R0
SYMATTR InstName C2
SYMATTR Value 47µ
SYMBOL voltage -192 144 R0
WINDOW 123 0 0 Left 2
WINDOW 39 0 0 Left 2
SYMATTR InstName V1
SYMATTR Value SINE(0 16.97056274847714 1000)
SYMBOL PowerProducts\\LT1085-3.3 288 48 R0
SYMATTR InstName U1
SYMBOL diode -144 64 R270
WINDOW 0 32 32 VTop 2
WINDOW 3 0 32 VBottom 2
SYMATTR InstName D1
SYMATTR Value 1N4148
TEXT -226 376 Left 2 !.tran 0 0.01 0 0.001
