Version 4
SHEET 1 880 680
WIRE 640 -128 336 -128
WIRE 560 -80 480 -80
WIRE 560 -64 560 -80
WIRE 48 -32 0 -32
WIRE 256 -32 256 -128
WIRE 256 -32 128 -32
WIRE 416 -32 256 -32
WIRE 0 0 0 -32
WIRE 480 16 480 0
WIRE 416 32 416 -32
WIRE 448 32 416 32
WIRE 640 48 640 -128
WIRE 640 48 512 48
WIRE 672 48 640 48
WIRE 448 64 336 64
WIRE 144 80 80 80
WIRE 336 80 336 64
WIRE 336 80 224 80
WIRE 80 128 80 80
WIRE 336 128 336 80
WIRE 480 128 480 80
WIRE 80 256 80 208
WIRE 336 256 336 208
FLAG 0 0 0
FLAG 480 128 0
FLAG 336 256 0
FLAG 80 256 0
FLAG 560 -64 0
SYMBOL voltage 80 112 R0
WINDOW 3 -119 111 Left 2
WINDOW 123 0 0 Left 2
WINDOW 39 0 0 Left 2
SYMATTR InstName V1
SYMATTR Value SINE(0 0.141421 1000)
SYMBOL res 240 64 R90
WINDOW 0 0 56 VBottom 2
WINDOW 3 32 56 VTop 2
SYMATTR InstName R1
SYMATTR Value 1k
SYMBOL res 352 -144 R90
WINDOW 0 0 56 VBottom 2
WINDOW 3 32 56 VTop 2
SYMATTR InstName R2
SYMATTR Value 10k
SYMBOL res 352 224 R180
WINDOW 0 36 76 Left 2
WINDOW 3 36 40 Left 2
SYMATTR InstName R3
SYMATTR Value 10k
SYMBOL res 144 -48 R90
WINDOW 0 0 56 VBottom 2
WINDOW 3 32 56 VTop 2
SYMATTR InstName R4
SYMATTR Value 1k
SYMBOL Opamps\\UniversalOpamp2 480 48 R0
SYMATTR InstName U1
SYMBOL voltage 480 16 R180
WINDOW 0 24 96 Left 2
WINDOW 3 24 16 Left 2
SYMATTR InstName V2
SYMATTR Value 3.3
TEXT -40 280 Left 2 !.tran 0 10m 0 0.05m
