Version 4
SHEET 1 3336 1224
WIRE 272 -432 -96 -432
WIRE 432 -432 272 -432
WIRE 576 -432 432 -432
WIRE 880 -432 816 -432
WIRE 1120 -432 880 -432
WIRE 880 -400 880 -432
WIRE 2176 -400 2016 -400
WIRE 2432 -400 2176 -400
WIRE 2512 -400 2432 -400
WIRE 272 -384 272 -432
WIRE 2016 -384 2016 -400
WIRE 2176 -384 2176 -400
WIRE 576 -368 576 -432
WIRE 1056 -352 992 -352
WIRE 992 -320 992 -352
WIRE 1616 -320 1600 -320
WIRE 1744 -320 1696 -320
WIRE 1056 -304 1056 -352
WIRE 272 -288 272 -304
WIRE 880 -288 880 -320
WIRE 1024 -288 880 -288
WIRE 1168 -272 1088 -272
WIRE 1216 -272 1168 -272
WIRE 1744 -272 1744 -320
WIRE 1872 -272 1744 -272
WIRE 1984 -272 1952 -272
WIRE 2016 -272 2016 -304
WIRE 2016 -272 1984 -272
WIRE 2064 -272 2016 -272
WIRE 2176 -272 2176 -320
WIRE 2176 -272 2144 -272
WIRE 2288 -272 2176 -272
WIRE -96 -256 -96 -432
WIRE 880 -256 880 -288
WIRE 1024 -256 992 -256
WIRE 576 -224 576 -288
WIRE 672 -224 576 -224
WIRE 1440 -224 1392 -224
WIRE 1600 -224 1600 -320
WIRE 1600 -224 1520 -224
WIRE 1984 -224 1984 -272
WIRE 2368 -224 2368 -272
WIRE 1392 -208 1392 -224
WIRE 2288 -208 2288 -272
WIRE 2336 -208 2288 -208
WIRE 1600 -192 1600 -224
WIRE 1616 -192 1600 -192
WIRE 2432 -192 2432 -400
WIRE 2432 -192 2400 -192
WIRE 1056 -176 1056 -240
WIRE 1120 -176 1120 -432
WIRE 1120 -176 1056 -176
WIRE 1744 -176 1744 -272
WIRE 1744 -176 1680 -176
WIRE 2336 -176 2256 -176
WIRE 1616 -160 1600 -160
WIRE 576 -144 576 -224
WIRE 272 -128 272 -208
WIRE 384 -128 272 -128
WIRE 880 -128 880 -176
WIRE 992 -128 992 -256
WIRE 1168 -128 1168 -272
WIRE 1168 -128 992 -128
WIRE 1440 -128 1392 -128
WIRE 1600 -128 1600 -160
WIRE 1600 -128 1520 -128
WIRE 1984 -128 1984 -160
WIRE 2368 -128 2368 -160
WIRE 272 -112 272 -128
WIRE 1600 -96 1600 -128
WIRE -96 -16 -96 -176
WIRE 96 -16 -96 -16
WIRE 272 -16 272 -32
WIRE 272 -16 96 -16
WIRE 576 -16 576 -64
WIRE 576 -16 272 -16
WIRE 96 0 96 -16
WIRE 2272 208 2112 208
WIRE 2528 208 2272 208
WIRE 2608 208 2528 208
WIRE 2112 224 2112 208
WIRE 2272 224 2272 208
WIRE 144 256 16 256
WIRE 240 256 208 256
WIRE 400 256 320 256
WIRE 544 256 400 256
WIRE 576 256 544 256
WIRE 1008 256 864 256
WIRE 1104 256 1008 256
WIRE 1872 256 1824 256
WIRE 1712 272 1632 272
WIRE 1776 272 1712 272
WIRE 400 288 400 256
WIRE 1008 288 1008 256
WIRE 1824 304 1824 256
WIRE 1872 304 1872 256
WIRE 1776 320 1776 272
WIRE 1792 320 1776 320
WIRE 1920 336 1856 336
WIRE 1968 336 1920 336
WIRE 2080 336 2048 336
WIRE 2112 336 2112 304
WIRE 2112 336 2080 336
WIRE 2160 336 2112 336
WIRE 2272 336 2272 288
WIRE 2272 336 2240 336
WIRE 2384 336 2272 336
WIRE 544 352 544 256
WIRE 576 352 544 352
WIRE 1792 352 1776 352
WIRE 1920 368 1920 336
WIRE 1600 384 1568 384
WIRE 1712 384 1712 352
WIRE 1712 384 1680 384
WIRE 2080 384 2080 336
WIRE 2464 384 2464 336
WIRE 2384 400 2384 336
WIRE 2432 400 2384 400
WIRE 2528 416 2528 208
WIRE 2528 416 2496 416
WIRE 2432 432 2352 432
WIRE 400 480 400 352
WIRE 688 480 400 480
WIRE 720 480 720 416
WIRE 720 480 688 480
WIRE 1008 480 1008 352
WIRE 1008 480 720 480
WIRE 1632 480 1520 480
WIRE 1776 480 1776 352
WIRE 1776 480 1712 480
WIRE 1808 480 1776 480
WIRE 1920 480 1920 448
WIRE 1920 480 1888 480
WIRE 2080 480 2080 448
WIRE 2464 480 2464 448
WIRE 688 512 688 480
WIRE 1520 512 1520 480
WIRE 2256 624 2096 624
WIRE 2512 624 2256 624
WIRE 2592 624 2512 624
WIRE 2096 640 2096 624
WIRE 2256 640 2256 624
WIRE 1856 672 1808 672
WIRE 1696 688 1616 688
WIRE 1760 688 1696 688
WIRE 1808 720 1808 672
WIRE 1856 720 1856 672
WIRE 1760 736 1760 688
WIRE 1776 736 1760 736
WIRE 1904 752 1840 752
WIRE 1952 752 1904 752
WIRE 2064 752 2032 752
WIRE 2096 752 2096 720
WIRE 2096 752 2064 752
WIRE 2144 752 2096 752
WIRE 2256 752 2256 704
WIRE 2256 752 2224 752
WIRE 2368 752 2256 752
WIRE 1776 768 1760 768
WIRE 1904 784 1904 752
WIRE 1584 800 1552 800
WIRE 1696 800 1696 688
WIRE 1696 800 1664 800
WIRE 2064 800 2064 752
WIRE 2448 800 2448 752
WIRE 2368 816 2368 752
WIRE 2416 816 2368 816
WIRE 2512 832 2512 624
WIRE 2512 832 2480 832
WIRE 2416 848 2336 848
WIRE 1616 896 1504 896
WIRE 1760 896 1760 768
WIRE 1760 896 1696 896
WIRE 1904 896 1904 864
WIRE 1904 896 1760 896
WIRE 2064 896 2064 864
WIRE 2448 896 2448 864
FLAG 96 0 0
FLAG 384 -128 Isens
FLAG 1648 -208 3v3
FLAG 1648 -144 0
FLAG 1392 -208 0
FLAG 1392 -128 Isens
FLAG 1600 -16 1v65
FLAG 688 512 0
FLAG 1104 256 3v3
FLAG 672 -224 Vsens
FLAG 1472 272 Vsens
FLAG 1824 368 3v3
FLAG 1872 304 0
FLAG 1520 512 0
FLAG 1568 384 1v65
FLAG 816 -432 3v3
FLAG 880 -128 0
FLAG 1216 -272 1v65
FLAG 992 -320 0
FLAG 1984 -128 0
FLAG 2368 -128 0
FLAG 2368 -272 3v3
FLAG 2256 -176 1v65
FLAG 2512 -400 IConditioned
FLAG 2080 480 0
FLAG 2464 480 0
FLAG 2464 336 3v3
FLAG 2352 432 1v65
FLAG 2608 208 VConditioned
FLAG 1456 688 Vsens
FLAG 1808 784 3v3
FLAG 1856 720 0
FLAG 1552 800 1v65
FLAG 2064 896 0
FLAG 2448 896 0
FLAG 2448 752 3v3
FLAG 2336 848 1v65
FLAG 2592 624 VConditioned2
FLAG 1504 896 Isens
FLAG 432 -432 Vac
FLAG 16 256 Vac
SYMBOL voltage -96 -272 R0
WINDOW 3 24 44 Left 2
WINDOW 123 0 0 Left 2
WINDOW 39 0 0 Left 2
SYMATTR Value SINE(0 19.799 500)
SYMATTR InstName V1
SYMBOL ind 256 -400 R0
SYMATTR InstName L1
SYMATTR Value 3.7m
SYMBOL res 256 -304 R0
SYMATTR InstName R1
SYMATTR Value 220
SYMBOL res 256 -128 R0
SYMATTR InstName R2
SYMATTR Value 270m
SYMBOL res 560 -384 R0
SYMATTR InstName R3
SYMATTR Value 150k
SYMBOL res 560 -160 R0
SYMATTR InstName R4
SYMATTR Value 12k
SYMBOL Opamps/UniversalOpamp2 1648 -176 R0
SYMATTR InstName U1
SYMBOL res 1712 -336 R90
WINDOW 0 0 56 VBottom 2
WINDOW 3 32 56 VTop 2
SYMATTR InstName R5
SYMATTR Value 47k
SYMBOL res 1536 -240 R90
WINDOW 0 0 56 VBottom 2
WINDOW 3 32 56 VTop 2
SYMATTR InstName R6
SYMATTR Value 8.2k
SYMBOL res 1536 -144 R90
WINDOW 0 0 56 VBottom 2
WINDOW 3 32 56 VTop 2
SYMATTR InstName R7
SYMATTR Value 8.2k
SYMBOL res 1616 0 R180
WINDOW 0 36 76 Left 2
WINDOW 3 36 40 Left 2
SYMATTR InstName R8
SYMATTR Value 47k
SYMBOL PowerProducts/LT3009-3.3 720 304 R0
SYMATTR InstName U2
SYMBOL cap 384 288 R0
SYMATTR InstName C1
SYMATTR Value 1000µ
SYMBOL cap 992 288 R0
SYMATTR InstName C2
SYMATTR Value 10µ
SYMBOL res 336 240 R90
WINDOW 0 0 56 VBottom 2
WINDOW 3 32 56 VTop 2
SYMATTR InstName R9
SYMATTR Value 10
SYMBOL diode 144 272 R270
WINDOW 0 32 32 VTop 2
WINDOW 3 0 32 VBottom 2
SYMATTR InstName D1
SYMBOL Opamps/UniversalOpamp2 1824 336 M180
SYMATTR InstName U3
SYMBOL res 1728 464 R90
WINDOW 0 0 56 VBottom 2
WINDOW 3 32 56 VTop 2
SYMATTR InstName R10
SYMATTR Value 100k
SYMBOL res 1648 256 R90
WINDOW 0 0 56 VBottom 2
WINDOW 3 32 56 VTop 2
SYMATTR InstName R11
SYMATTR Value 22k
SYMBOL res 1728 368 R180
WINDOW 0 36 76 Left 2
WINDOW 3 36 40 Left 2
SYMATTR InstName R12
SYMATTR Value 68k
SYMBOL res 1904 464 R90
WINDOW 0 0 56 VBottom 2
WINDOW 3 32 56 VTop 2
SYMATTR InstName R13
SYMATTR Value 68k
SYMBOL res 864 -416 R0
SYMATTR InstName R14
SYMATTR Value 100k
SYMBOL res 864 -272 R0
SYMATTR InstName R15
SYMATTR Value 100k
SYMBOL Opamps/UniversalOpamp2 1056 -272 M180
SYMATTR InstName U4
SYMBOL res 1968 -288 R90
WINDOW 0 0 56 VBottom 2
WINDOW 3 32 56 VTop 2
SYMATTR InstName R16
SYMATTR Value 5.6k
SYMBOL cap 1968 -224 R0
SYMATTR InstName C3
SYMATTR Value 6.8n
SYMBOL res 2000 -400 R0
SYMATTR InstName R17
SYMATTR Value 5.6k
SYMBOL cap 2160 -384 R0
SYMATTR InstName C4
SYMATTR Value 2.2n
SYMBOL res 2160 -288 R90
WINDOW 0 0 56 VBottom 2
WINDOW 3 32 56 VTop 2
SYMATTR InstName R18
SYMATTR Value 12k
SYMBOL Opamps/UniversalOpamp2 2368 -192 R0
SYMATTR InstName U5
SYMBOL res 2064 320 R90
WINDOW 0 0 56 VBottom 2
WINDOW 3 32 56 VTop 2
SYMATTR InstName R19
SYMATTR Value 5.6k
SYMBOL cap 2064 384 R0
SYMATTR InstName C5
SYMATTR Value 6.8n
SYMBOL res 2096 208 R0
SYMATTR InstName R20
SYMATTR Value 5.6k
SYMBOL cap 2256 224 R0
SYMATTR InstName C6
SYMATTR Value 2.2n
SYMBOL res 2256 320 R90
WINDOW 0 0 56 VBottom 2
WINDOW 3 32 56 VTop 2
SYMATTR InstName R21
SYMATTR Value 12k
SYMBOL Opamps/UniversalOpamp2 2464 416 R0
SYMATTR InstName U6
SYMBOL res 1568 256 R90
WINDOW 0 0 56 VBottom 2
WINDOW 3 32 56 VTop 2
SYMATTR InstName R22
SYMATTR Value 68k
SYMBOL res 1904 352 R0
SYMATTR InstName R23
SYMATTR Value 22k
SYMBOL res 1696 368 R90
WINDOW 0 0 56 VBottom 2
WINDOW 3 32 56 VTop 2
SYMATTR InstName R24
SYMATTR Value 22k
SYMBOL Opamps/UniversalOpamp2 1808 752 M180
SYMATTR InstName U7
SYMBOL res 1712 880 R90
WINDOW 0 0 56 VBottom 2
WINDOW 3 32 56 VTop 2
SYMATTR InstName R25
SYMATTR Value 100k
SYMBOL res 1632 672 R90
WINDOW 0 0 56 VBottom 2
WINDOW 3 32 56 VTop 2
SYMATTR InstName R26
SYMATTR Value 22k
SYMBOL res 2048 736 R90
WINDOW 0 0 56 VBottom 2
WINDOW 3 32 56 VTop 2
SYMATTR InstName R29
SYMATTR Value 5.6k
SYMBOL cap 2048 800 R0
SYMATTR InstName C7
SYMATTR Value 6.8n
SYMBOL res 2080 624 R0
SYMATTR InstName R30
SYMATTR Value 5.6k
SYMBOL cap 2240 640 R0
SYMATTR InstName C8
SYMATTR Value 2.2n
SYMBOL res 2240 736 R90
WINDOW 0 0 56 VBottom 2
WINDOW 3 32 56 VTop 2
SYMATTR InstName R31
SYMATTR Value 12k
SYMBOL Opamps/UniversalOpamp2 2448 832 R0
SYMATTR InstName U8
SYMBOL res 1552 672 R90
WINDOW 0 0 56 VBottom 2
WINDOW 3 32 56 VTop 2
SYMATTR InstName R32
SYMATTR Value 68k
SYMBOL res 1680 784 R90
WINDOW 0 0 56 VBottom 2
WINDOW 3 32 56 VTop 2
SYMATTR InstName R34
SYMATTR Value 100k
SYMBOL res 1888 768 R0
SYMATTR InstName R28
SYMATTR Value 100k
TEXT 176 -344 Left 2 ;Load
TEXT -80 -544 Left 2 !.tran 0 100m 0 10u uic
TEXT 48 64 Left 2 ;Power Circuit with AC Source & Load
TEXT 1336 72 Left 2 ;Current Measurement - Amplification (x6.7) & Level Shift (1.65V) and low-pass Filtering
TEXT 496 568 Left 2 ;AC (22V-16V) to Regulated 3.3 V DC
TEXT 1368 576 Left 2 ;Voltage Measurement - Amplification (x1) & Level Shift (1.65V) and low-pass Filtering
TEXT 848 -72 Left 2 ;3.3V DC voltage divided to 1.65V
TEXT 1336 960 Left 2 ;Voltage Measurement using the difference between Vsens and Isens - Gain will need to be slightly above 1
RECTANGLE Normal 236 -396 340 -188 2
