Version 4
SHEET 1 4000 1224
WIRE 272 -432 -96 -432
WIRE 432 -432 272 -432
WIRE 576 -432 432 -432
WIRE 880 -432 816 -432
WIRE 1120 -432 880 -432
WIRE 3360 -416 3200 -416
WIRE 3616 -416 3360 -416
WIRE 3696 -416 3616 -416
WIRE 880 -400 880 -432
WIRE 2176 -400 2016 -400
WIRE 2432 -400 2176 -400
WIRE 2512 -400 2432 -400
WIRE 3200 -400 3200 -416
WIRE 3360 -400 3360 -416
WIRE 272 -384 272 -432
WIRE 2016 -384 2016 -400
WIRE 2176 -384 2176 -400
WIRE 576 -368 576 -432
WIRE 1056 -352 992 -352
WIRE 2800 -336 2784 -336
WIRE 2928 -336 2880 -336
WIRE 992 -320 992 -352
WIRE 1616 -320 1600 -320
WIRE 1744 -320 1696 -320
WIRE 1056 -304 1056 -352
WIRE 272 -288 272 -304
WIRE 880 -288 880 -320
WIRE 1024 -288 880 -288
WIRE 2928 -288 2928 -336
WIRE 3056 -288 2928 -288
WIRE 3168 -288 3136 -288
WIRE 3200 -288 3200 -320
WIRE 3200 -288 3168 -288
WIRE 3248 -288 3200 -288
WIRE 3360 -288 3360 -336
WIRE 3360 -288 3328 -288
WIRE 3472 -288 3360 -288
WIRE 1168 -272 1088 -272
WIRE 1216 -272 1168 -272
WIRE 1744 -272 1744 -320
WIRE 1872 -272 1744 -272
WIRE 1984 -272 1952 -272
WIRE 2016 -272 2016 -304
WIRE 2016 -272 1984 -272
WIRE 2064 -272 2016 -272
WIRE 2176 -272 2176 -320
WIRE 2176 -272 2144 -272
WIRE 2288 -272 2176 -272
WIRE -96 -256 -96 -432
WIRE 880 -256 880 -288
WIRE 1024 -256 992 -256
WIRE 2624 -240 2576 -240
WIRE 2784 -240 2784 -336
WIRE 2784 -240 2704 -240
WIRE 3168 -240 3168 -288
WIRE 3552 -240 3552 -288
WIRE 576 -224 576 -288
WIRE 672 -224 576 -224
WIRE 1440 -224 1392 -224
WIRE 1600 -224 1600 -320
WIRE 1600 -224 1520 -224
WIRE 1984 -224 1984 -272
WIRE 2368 -224 2368 -272
WIRE 2576 -224 2576 -240
WIRE 3472 -224 3472 -288
WIRE 3520 -224 3472 -224
WIRE 1392 -208 1392 -224
WIRE 2288 -208 2288 -272
WIRE 2336 -208 2288 -208
WIRE 2784 -208 2784 -240
WIRE 2800 -208 2784 -208
WIRE 3616 -208 3616 -416
WIRE 3616 -208 3584 -208
WIRE 1600 -192 1600 -224
WIRE 1616 -192 1600 -192
WIRE 2432 -192 2432 -400
WIRE 2432 -192 2400 -192
WIRE 2928 -192 2928 -288
WIRE 2928 -192 2864 -192
WIRE 3520 -192 3440 -192
WIRE 1056 -176 1056 -240
WIRE 1120 -176 1120 -432
WIRE 1120 -176 1056 -176
WIRE 1744 -176 1744 -272
WIRE 1744 -176 1680 -176
WIRE 2336 -176 2256 -176
WIRE 2800 -176 2784 -176
WIRE 1616 -160 1600 -160
WIRE 576 -144 576 -224
WIRE 2624 -144 2576 -144
WIRE 2784 -144 2784 -176
WIRE 2784 -144 2704 -144
WIRE 3168 -144 3168 -176
WIRE 3552 -144 3552 -176
WIRE 272 -128 272 -208
WIRE 384 -128 272 -128
WIRE 880 -128 880 -176
WIRE 992 -128 992 -256
WIRE 1168 -128 1168 -272
WIRE 1168 -128 992 -128
WIRE 1440 -128 1392 -128
WIRE 1600 -128 1600 -160
WIRE 1600 -128 1520 -128
WIRE 1984 -128 1984 -160
WIRE 2368 -128 2368 -160
WIRE 272 -112 272 -128
WIRE 2784 -112 2784 -144
WIRE 1600 -96 1600 -128
WIRE -96 -16 -96 -176
WIRE 96 -16 -96 -16
WIRE 272 -16 272 -32
WIRE 272 -16 96 -16
WIRE 576 -16 576 -64
WIRE 576 -16 272 -16
WIRE 96 0 96 -16
WIRE 2208 176 2048 176
WIRE 2464 176 2208 176
WIRE 2544 176 2464 176
WIRE 2048 192 2048 176
WIRE 2208 192 2208 176
WIRE 1808 224 1760 224
WIRE 1648 240 1568 240
WIRE 1712 240 1648 240
WIRE 144 256 16 256
WIRE 240 256 208 256
WIRE 400 256 320 256
WIRE 544 256 400 256
WIRE 576 256 544 256
WIRE 1008 256 864 256
WIRE 1104 256 1008 256
WIRE 1760 272 1760 224
WIRE 1808 272 1808 224
WIRE 400 288 400 256
WIRE 1008 288 1008 256
WIRE 1712 288 1712 240
WIRE 1728 288 1712 288
WIRE 1856 304 1792 304
WIRE 1904 304 1856 304
WIRE 2016 304 1984 304
WIRE 2048 304 2048 272
WIRE 2048 304 2016 304
WIRE 2096 304 2048 304
WIRE 2208 304 2208 256
WIRE 2208 304 2176 304
WIRE 2320 304 2208 304
WIRE 1728 320 1712 320
WIRE 1856 336 1856 304
WIRE 544 352 544 256
WIRE 576 352 544 352
WIRE 1536 352 1504 352
WIRE 1648 352 1648 240
WIRE 1648 352 1616 352
WIRE 2016 352 2016 304
WIRE 2400 352 2400 304
WIRE 2320 368 2320 304
WIRE 2368 368 2320 368
WIRE 2464 384 2464 176
WIRE 2464 384 2432 384
WIRE 2368 400 2288 400
WIRE 1568 448 1456 448
WIRE 1712 448 1712 320
WIRE 1712 448 1648 448
WIRE 1856 448 1856 416
WIRE 1856 448 1712 448
WIRE 2016 448 2016 416
WIRE 2400 448 2400 416
WIRE 400 480 400 352
WIRE 688 480 400 480
WIRE 720 480 720 416
WIRE 720 480 688 480
WIRE 1008 480 1008 352
WIRE 1008 480 720 480
WIRE 688 512 688 480
FLAG 96 0 0
FLAG 384 -128 Isens
FLAG 1648 -208 3v3
FLAG 1648 -144 0
FLAG 1392 -208 0
FLAG 1392 -128 Isens
FLAG 1600 -16 1v65
FLAG 688 512 0
FLAG 1104 256 3v3
FLAG 672 -224 Vsens
FLAG 816 -432 3v3
FLAG 880 -128 0
FLAG 1216 -272 1v65
FLAG 992 -320 0
FLAG 1984 -128 0
FLAG 2368 -128 0
FLAG 2368 -272 3v3
FLAG 2256 -176 1v65
FLAG 2512 -400 IConditioned
FLAG 1408 240 Vsens
FLAG 1760 336 3v3
FLAG 1808 272 0
FLAG 1504 352 1v65
FLAG 2016 448 0
FLAG 2400 448 0
FLAG 2400 304 3v3
FLAG 2288 400 1v65
FLAG 2544 176 VConditioned2
FLAG 1456 448 Isens
FLAG 432 -432 Vac
FLAG 16 256 Vac
FLAG 2832 -224 3v3
FLAG 2832 -160 0
FLAG 2576 -224 0
FLAG 2576 -144 Isens
FLAG 2784 -32 1v65
FLAG 3168 -144 0
FLAG 3552 -144 0
FLAG 3552 -288 3v3
FLAG 3440 -192 1v65
FLAG 3696 -416 IConditionedHighGain
SYMBOL voltage -96 -272 R0
WINDOW 3 24 44 Left 2
WINDOW 123 0 0 Left 2
WINDOW 39 0 0 Left 2
SYMATTR Value SINE(0 19.799 500)
SYMATTR InstName V1
SYMBOL ind 256 -400 R0
SYMATTR InstName L1
SYMATTR Value 3.7m
SYMBOL res 256 -304 R0
SYMATTR InstName R1
SYMATTR Value 110
SYMBOL res 256 -128 R0
SYMATTR InstName R2
SYMATTR Value 300m
SYMBOL res 560 -384 R0
SYMATTR InstName R3
SYMATTR Value 150k
SYMBOL res 560 -160 R0
SYMATTR InstName R4
SYMATTR Value 12k
SYMBOL Opamps/UniversalOpamp2 1648 -176 R0
SYMATTR InstName U1
SYMBOL res 1712 -336 R90
WINDOW 0 0 56 VBottom 2
WINDOW 3 32 56 VTop 2
SYMATTR InstName R5
SYMATTR Value 47k
SYMBOL res 1536 -240 R90
WINDOW 0 0 56 VBottom 2
WINDOW 3 32 56 VTop 2
SYMATTR InstName R6
SYMATTR Value 8.2k
SYMBOL res 1536 -144 R90
WINDOW 0 0 56 VBottom 2
WINDOW 3 32 56 VTop 2
SYMATTR InstName R7
SYMATTR Value 8.2k
SYMBOL res 1616 0 R180
WINDOW 0 36 76 Left 2
WINDOW 3 36 40 Left 2
SYMATTR InstName R8
SYMATTR Value 47k
SYMBOL PowerProducts/LT3009-3.3 720 304 R0
SYMATTR InstName U2
SYMBOL cap 384 288 R0
SYMATTR InstName C1
SYMATTR Value 100µ
SYMBOL cap 992 288 R0
SYMATTR InstName C2
SYMATTR Value 10µ
SYMBOL res 336 240 R90
WINDOW 0 0 56 VBottom 2
WINDOW 3 32 56 VTop 2
SYMATTR InstName R9
SYMATTR Value 10
SYMBOL diode 144 272 R270
WINDOW 0 32 32 VTop 2
WINDOW 3 0 32 VBottom 2
SYMATTR InstName D1
SYMBOL res 864 -416 R0
SYMATTR InstName R14
SYMATTR Value 100k
SYMBOL res 864 -272 R0
SYMATTR InstName R15
SYMATTR Value 100k
SYMBOL Opamps/UniversalOpamp2 1056 -272 M180
SYMATTR InstName U4
SYMBOL res 1968 -288 R90
WINDOW 0 0 56 VBottom 2
WINDOW 3 32 56 VTop 2
SYMATTR InstName R16
SYMATTR Value 5.6k
SYMBOL cap 1968 -224 R0
SYMATTR InstName C3
SYMATTR Value 6.8n
SYMBOL res 2000 -400 R0
SYMATTR InstName R17
SYMATTR Value 5.6k
SYMBOL cap 2160 -384 R0
SYMATTR InstName C4
SYMATTR Value 2.2n
SYMBOL res 2160 -288 R90
WINDOW 0 0 56 VBottom 2
WINDOW 3 32 56 VTop 2
SYMATTR InstName R18
SYMATTR Value 12k
SYMBOL Opamps/UniversalOpamp2 2368 -192 R0
SYMATTR InstName U5
SYMBOL Opamps/UniversalOpamp2 1760 304 M180
SYMATTR InstName U7
SYMBOL res 1664 432 R90
WINDOW 0 0 56 VBottom 2
WINDOW 3 32 56 VTop 2
SYMATTR InstName R25
SYMATTR Value 100k
SYMBOL res 1584 224 R90
WINDOW 0 0 56 VBottom 2
WINDOW 3 32 56 VTop 2
SYMATTR InstName R26
SYMATTR Value 22k
SYMBOL res 2000 288 R90
WINDOW 0 0 56 VBottom 2
WINDOW 3 32 56 VTop 2
SYMATTR InstName R29
SYMATTR Value 5.6k
SYMBOL cap 2000 352 R0
SYMATTR InstName C7
SYMATTR Value 6.8n
SYMBOL res 2032 176 R0
SYMATTR InstName R30
SYMATTR Value 5.6k
SYMBOL cap 2192 192 R0
SYMATTR InstName C8
SYMATTR Value 2.2n
SYMBOL res 2192 288 R90
WINDOW 0 0 56 VBottom 2
WINDOW 3 32 56 VTop 2
SYMATTR InstName R31
SYMATTR Value 12k
SYMBOL Opamps/UniversalOpamp2 2400 384 R0
SYMATTR InstName U8
SYMBOL res 1504 224 R90
WINDOW 0 0 56 VBottom 2
WINDOW 3 32 56 VTop 2
SYMATTR InstName R32
SYMATTR Value 68k
SYMBOL res 1632 336 R90
WINDOW 0 0 56 VBottom 2
WINDOW 3 32 56 VTop 2
SYMATTR InstName R34
SYMATTR Value 100k
SYMBOL res 1840 320 R0
SYMATTR InstName R28
SYMATTR Value 100k
SYMBOL Opamps/UniversalOpamp2 2832 -192 R0
SYMATTR InstName U3
SYMBOL res 2896 -352 R90
WINDOW 0 0 56 VBottom 2
WINDOW 3 32 56 VTop 2
SYMATTR InstName R10
SYMATTR Value 270k
SYMBOL res 2720 -256 R90
WINDOW 0 0 56 VBottom 2
WINDOW 3 32 56 VTop 2
SYMATTR InstName R11
SYMATTR Value 8.2k
SYMBOL res 2720 -160 R90
WINDOW 0 0 56 VBottom 2
WINDOW 3 32 56 VTop 2
SYMATTR InstName R12
SYMATTR Value 8.2k
SYMBOL res 2800 -16 R180
WINDOW 0 36 76 Left 2
WINDOW 3 36 40 Left 2
SYMATTR InstName R13
SYMATTR Value 270k
SYMBOL res 3152 -304 R90
WINDOW 0 0 56 VBottom 2
WINDOW 3 32 56 VTop 2
SYMATTR InstName R19
SYMATTR Value 5.6k
SYMBOL cap 3152 -240 R0
SYMATTR InstName C5
SYMATTR Value 6.8n
SYMBOL res 3184 -416 R0
SYMATTR InstName R20
SYMATTR Value 5.6k
SYMBOL cap 3344 -400 R0
SYMATTR InstName C6
SYMATTR Value 2.2n
SYMBOL res 3344 -304 R90
WINDOW 0 0 56 VBottom 2
WINDOW 3 32 56 VTop 2
SYMATTR InstName R21
SYMATTR Value 12k
SYMBOL Opamps/UniversalOpamp2 3552 -208 R0
SYMATTR InstName U6
TEXT 176 -344 Left 2 ;Load
TEXT -80 -544 Left 2 !.tran 0 100m 0 10u uic
TEXT 48 64 Left 2 ;Power Circuit with AC Source & Load
TEXT 1336 72 Left 2 ;Current Measurement - Amplification (x6.7) & Level Shift (1.65V) and low-pass Filtering
TEXT 496 568 Left 2 ;AC (22V-16V) to Regulated 3.3 V DC
TEXT 848 -72 Left 2 ;3.3V DC voltage divided to 1.65V
TEXT 1288 512 Left 2 ;Voltage Measurement using the difference between Vsens and Isens - Gain will need to be slightly above 1
TEXT 864 648 Left 2 ;Based on calculated expected values, this one is probably the most accurate, so I plan to proceed with this one. -James
TEXT 2680 72 Left 2 ;Current Measurement - Amplification (x33.93) & Level Shift (1.65V) and low-pass Filtering
RECTANGLE Normal 236 -396 340 -188 2
